  10
 units: A
      O                    1.003819   -0.876861   -0.295490
      C                   -1.352892   -0.093735   -0.335204
      H                   -1.239702    0.016005   -1.412670
      H                   -1.877009   -1.029138   -0.139968
      H                   -1.965947    0.726438    0.040141
      C                   -0.007539   -0.098090    0.331154
      H                   -0.019989   -0.196472    1.412670
      C                    1.160813    0.537048   -0.270473
      H                    1.064903    1.029138   -1.231551
      H                    1.965947    0.902919    0.355595
